Circuit: * CMOS One-Stage Op-Amp Template

Instance "m6": Length shorter than recommended for a level 1 MOSFET.
Instance "m5": Length shorter than recommended for a level 1 MOSFET.
Instance "m4": Length shorter than recommended for a level 1 MOSFET.
Instance "m3": Length shorter than recommended for a level 1 MOSFET.
Instance "m2": Length shorter than recommended for a level 1 MOSFET.
Instance "m1": Length shorter than recommended for a level 1 MOSFET.
Direct Newton iteration for .op point succeeded.

gain_max: MAX(db(v(out-)))=(28.9593dB,103.408°) FROM 1 TO 1e+008
power_avg: AVG(i(v4))=0.00210999 FROM 1 TO 1e+008


Date: Wed May 14 22:50:19 2025
Total elapsed time: 0.052 seconds.

tnom = 27
temp = 27
method = trap
totiter = 29
traniter = 0
tranpoints = 0
accept = 0
rejected = 0
matrix size = 12
fillins = 0
solver = Normal
Matrix Compiler1:      36 opcodes
Matrix Compiler2: 1.06 KB object code size
