Circuit: * C:\Users\natha\OneDrive\Desktop\csci5980project\Draft1.asc

